* +++++++++++++++++++++++++++++++++++++++++++++++++++++++++ *
* CDL Netlist:                                              *
*                                                           *
* Cell Name  : counter                                      *
* Netlisted  : Mon Nov 22 07:52:11 2021                     *
* PVS Version: 16.15-s010 Fri Jun 28 22:24:07 PDT 2019      *
* +++++++++++++++++++++++++++++++++++++++++++++++++++++++++ *
*.LDD
*.DEVTMPLT 0 MN(nmos3) _nmos1v _soi_nd(D) poly_conn(G) _soi_nsb(S) _soi_nsb(B)
*.DEVTMPLT 1 MP(pmos3) _pmos1v _soi_pd(D) poly_conn(G) _soi_psb(S) _soi_psb(B)

* +++++++++++++++++++++++++++++++++++++++++++++++++++++++++ *
* Sub cell: M2_M1_CDNS_1                                    *
* +++++++++++++++++++++++++++++++++++++++++++++++++++++++++ *
.subckt M2_M1_CDNS_1 1
** N=1 EP=1 FDC=0
.ends M2_M1_CDNS_1

* +++++++++++++++++++++++++++++++++++++++++++++++++++++++++ *
* Sub cell: M2_M1_CDNS_2                                    *
* +++++++++++++++++++++++++++++++++++++++++++++++++++++++++ *
.subckt M2_M1_CDNS_2 1
** N=1 EP=1 FDC=0
.ends M2_M1_CDNS_2

* +++++++++++++++++++++++++++++++++++++++++++++++++++++++++ *
* Sub cell: M3_M2_CDNS_3                                    *
* +++++++++++++++++++++++++++++++++++++++++++++++++++++++++ *
.subckt M3_M2_CDNS_3 1
** N=1 EP=1 FDC=0
.ends M3_M2_CDNS_3

* +++++++++++++++++++++++++++++++++++++++++++++++++++++++++ *
* Sub cell: M3_M2_CDNS_4                                    *
* +++++++++++++++++++++++++++++++++++++++++++++++++++++++++ *
.subckt M3_M2_CDNS_4 1
** N=1 EP=1 FDC=0
.ends M3_M2_CDNS_4

* +++++++++++++++++++++++++++++++++++++++++++++++++++++++++ *
* Sub cell: M3_M2_CDNS_5                                    *
* +++++++++++++++++++++++++++++++++++++++++++++++++++++++++ *
.subckt M3_M2_CDNS_5 1
** N=1 EP=1 FDC=0
.ends M3_M2_CDNS_5

* +++++++++++++++++++++++++++++++++++++++++++++++++++++++++ *
* Sub cell: M2_M1_CDNS_6                                    *
* +++++++++++++++++++++++++++++++++++++++++++++++++++++++++ *
.subckt M2_M1_CDNS_6 1
** N=1 EP=1 FDC=0
.ends M2_M1_CDNS_6

* +++++++++++++++++++++++++++++++++++++++++++++++++++++++++ *
* Sub cell: M2_M1_CDNS_7                                    *
* +++++++++++++++++++++++++++++++++++++++++++++++++++++++++ *
.subckt M2_M1_CDNS_7 1
** N=1 EP=1 FDC=0
.ends M2_M1_CDNS_7

* +++++++++++++++++++++++++++++++++++++++++++++++++++++++++ *
* Sub cell: M3_M2_CDNS_8                                    *
* +++++++++++++++++++++++++++++++++++++++++++++++++++++++++ *
.subckt M3_M2_CDNS_8 1
** N=1 EP=1 FDC=0
.ends M3_M2_CDNS_8

* +++++++++++++++++++++++++++++++++++++++++++++++++++++++++ *
* Sub cell: M2_M1_CDNS_9                                    *
* +++++++++++++++++++++++++++++++++++++++++++++++++++++++++ *
.subckt M2_M1_CDNS_9 1
** N=1 EP=1 FDC=0
.ends M2_M1_CDNS_9

* +++++++++++++++++++++++++++++++++++++++++++++++++++++++++ *
* Sub cell: M2_M1_CDNS_10                                   *
* +++++++++++++++++++++++++++++++++++++++++++++++++++++++++ *
.subckt M2_M1_CDNS_10 1
** N=1 EP=1 FDC=0
.ends M2_M1_CDNS_10

* +++++++++++++++++++++++++++++++++++++++++++++++++++++++++ *
* Sub cell: M1_PO_CDNS_11                                   *
* +++++++++++++++++++++++++++++++++++++++++++++++++++++++++ *
.subckt M1_PO_CDNS_11 1
** N=1 EP=1 FDC=0
.ends M1_PO_CDNS_11

* +++++++++++++++++++++++++++++++++++++++++++++++++++++++++ *
* Sub cell: nmos3_CDNS_12                                   *
* +++++++++++++++++++++++++++++++++++++++++++++++++++++++++ *
.subckt nmos3_CDNS_12 1 2 3 4
** N=4 EP=4 FDC=1
M0 2 3 4 4 nmos3 L=1e-06 W=2e-06 AD=5e-12 AS=0 PD=9e-06 PS=0 fw=2e-06 sa=2e-06 sb=2e-06 $X=7000 $Y=2000 $dt=0
.ends nmos3_CDNS_12

* +++++++++++++++++++++++++++++++++++++++++++++++++++++++++ *
* Sub cell: nmos3_CDNS_13                                   *
* +++++++++++++++++++++++++++++++++++++++++++++++++++++++++ *
.subckt nmos3_CDNS_13 1 2 3 4
** N=4 EP=4 FDC=1
M0 2 4 3 3 nmos3 L=1e-06 W=4e-06 AD=1e-11 AS=0 PD=1.3e-05 PS=0 fw=4e-06 sa=2e-06 sb=2e-06 $X=7000 $Y=2000 $dt=0
.ends nmos3_CDNS_13

* +++++++++++++++++++++++++++++++++++++++++++++++++++++++++ *
* Sub cell: pmos3_CDNS_14                                   *
* +++++++++++++++++++++++++++++++++++++++++++++++++++++++++ *
.subckt pmos3_CDNS_14 1 2 3 4
** N=5 EP=4 FDC=1
M0 2 3 4 4 pmos3 L=1e-06 W=4e-06 AD=1e-11 AS=0 PD=1.3e-05 PS=0 fw=4e-06 sa=2e-06 sb=2e-06 $X=7000 $Y=2000 $dt=1
.ends pmos3_CDNS_14

* +++++++++++++++++++++++++++++++++++++++++++++++++++++++++ *
* Sub cell: pmos3_CDNS_15                                   *
* +++++++++++++++++++++++++++++++++++++++++++++++++++++++++ *
.subckt pmos3_CDNS_15 1 2 3 4
** N=5 EP=4 FDC=1
M0 2 4 3 3 pmos3 L=1e-06 W=8e-06 AD=2e-11 AS=0 PD=2.1e-05 PS=0 fw=8e-06 sa=2e-06 sb=2e-06 $X=7000 $Y=2000 $dt=1
.ends pmos3_CDNS_15

* +++++++++++++++++++++++++++++++++++++++++++++++++++++++++ *
* Sub cell: BUFX2                                           *
* +++++++++++++++++++++++++++++++++++++++++++++++++++++++++ *
.subckt BUFX2 1 A VDD! VSS! Y
** N=6 EP=5 FDC=4
X0 A M1_PO_CDNS_11 $T=4000 36000 0 0 $X=2000 $Y=34000
X1 6 M1_PO_CDNS_11 $T=21200 36000 0 0 $X=19200 $Y=34000
X2 1 6 A VSS! nmos3_CDNS_12 $T=17000 16000 1 180 $X=1000 $Y=16000
X3 1 Y VSS! 6 nmos3_CDNS_13 $T=35000 12000 1 180 $X=19000 $Y=12000
X4 1 6 A VDD! pmos3_CDNS_14 $T=17000 60000 0 180 $X=1000 $Y=46000
X5 1 Y VDD! 6 pmos3_CDNS_15 $T=35000 60000 0 180 $X=19000 $Y=38000
.ends BUFX2

* +++++++++++++++++++++++++++++++++++++++++++++++++++++++++ *
* Sub cell: INVX1                                           *
* +++++++++++++++++++++++++++++++++++++++++++++++++++++++++ *
.subckt INVX1 1 A Y VDD! VSS!
** N=6 EP=5 FDC=2
X0 A M1_PO_CDNS_11 $T=4000 36000 0 0 $X=2000 $Y=34000
X1 1 Y A VSS! nmos3_CDNS_12 $T=20000 23800 1 180 $X=4000 $Y=23800
X2 1 Y A VDD! pmos3_CDNS_14 $T=20000 52200 0 180 $X=4000 $Y=38200
.ends INVX1

* +++++++++++++++++++++++++++++++++++++++++++++++++++++++++ *
* Sub cell: M2_M1_CDNS_16                                   *
* +++++++++++++++++++++++++++++++++++++++++++++++++++++++++ *
.subckt M2_M1_CDNS_16 1
** N=1 EP=1 FDC=0
.ends M2_M1_CDNS_16

* +++++++++++++++++++++++++++++++++++++++++++++++++++++++++ *
* Sub cell: DFFX1                                           *
* +++++++++++++++++++++++++++++++++++++++++++++++++++++++++ *
.subckt DFFX1 1 CK VDD! VSS! D Q QN
** N=20 EP=7 FDC=28
X0 CK M1_PO_CDNS_11 $T=4000 36000 0 0 $X=2000 $Y=34000
X1 8 M1_PO_CDNS_11 $T=25000 36000 0 0 $X=23000 $Y=34000
X2 9 M1_PO_CDNS_11 $T=32000 64000 0 0 $X=30000 $Y=62000
X3 D M1_PO_CDNS_11 $T=44000 36000 0 0 $X=42000 $Y=34000
X4 10 M1_PO_CDNS_11 $T=64000 36000 0 0 $X=62000 $Y=34000
X5 11 M1_PO_CDNS_11 $T=89000 36000 0 0 $X=87000 $Y=34000
X6 12 M1_PO_CDNS_11 $T=136000 36000 0 0 $X=134000 $Y=34000
X7 13 M1_PO_CDNS_11 $T=153000 36000 0 0 $X=151000 $Y=34000
X8 14 M1_PO_CDNS_11 $T=212000 36000 0 0 $X=210000 $Y=34000
X9 1 8 CK VSS! nmos3_CDNS_12 $T=20000 10800 1 180 $X=4000 $Y=10800
X10 1 9 8 VSS! nmos3_CDNS_12 $T=36000 10800 1 180 $X=20000 $Y=10800
X11 1 15 D VSS! nmos3_CDNS_12 $T=52000 10800 1 180 $X=36000 $Y=10800
X12 1 10 8 15 nmos3_CDNS_12 $T=68000 10800 1 180 $X=52000 $Y=10800
X13 1 11 10 VSS! nmos3_CDNS_12 $T=84000 10800 1 180 $X=68000 $Y=10800
X14 1 16 11 VSS! nmos3_CDNS_12 $T=100000 10800 1 180 $X=84000 $Y=10800
X15 1 10 9 16 nmos3_CDNS_12 $T=116000 10800 1 180 $X=100000 $Y=10800
X16 1 12 9 11 nmos3_CDNS_12 $T=132000 10800 1 180 $X=116000 $Y=10800
X17 1 13 12 VSS! nmos3_CDNS_12 $T=148000 10800 1 180 $X=132000 $Y=10800
X18 1 17 13 VSS! nmos3_CDNS_12 $T=164000 10800 1 180 $X=148000 $Y=10800
X19 1 12 8 17 nmos3_CDNS_12 $T=180000 10800 1 180 $X=164000 $Y=10800
X20 1 Q 13 VSS! nmos3_CDNS_12 $T=196000 10800 1 180 $X=180000 $Y=10800
X21 1 14 13 VSS! nmos3_CDNS_12 $T=212000 10800 1 180 $X=196000 $Y=10800
X22 1 QN 14 VSS! nmos3_CDNS_12 $T=228000 10800 1 180 $X=212000 $Y=10800
X23 1 8 CK VDD! pmos3_CDNS_14 $T=20000 59600 0 180 $X=4000 $Y=45600
X24 1 9 8 VDD! pmos3_CDNS_14 $T=36000 59600 0 180 $X=20000 $Y=45600
X25 1 18 D VDD! pmos3_CDNS_14 $T=52000 59600 0 180 $X=36000 $Y=45600
X26 1 10 9 18 pmos3_CDNS_14 $T=68000 59600 0 180 $X=52000 $Y=45600
X27 1 11 10 VDD! pmos3_CDNS_14 $T=84000 59600 0 180 $X=68000 $Y=45600
X28 1 19 11 VDD! pmos3_CDNS_14 $T=100000 59600 0 180 $X=84000 $Y=45600
X29 1 10 8 19 pmos3_CDNS_14 $T=116000 59600 0 180 $X=100000 $Y=45600
X30 1 12 8 11 pmos3_CDNS_14 $T=132000 59600 0 180 $X=116000 $Y=45600
X31 1 13 12 VDD! pmos3_CDNS_14 $T=148000 59600 0 180 $X=132000 $Y=45600
X32 1 20 13 VDD! pmos3_CDNS_14 $T=164000 59600 0 180 $X=148000 $Y=45600
X33 1 12 9 20 pmos3_CDNS_14 $T=180000 59600 0 180 $X=164000 $Y=45600
X34 1 Q 13 VDD! pmos3_CDNS_14 $T=196000 59600 0 180 $X=180000 $Y=45600
X35 1 14 13 VDD! pmos3_CDNS_14 $T=212000 59600 0 180 $X=196000 $Y=45600
X36 1 QN 14 VDD! pmos3_CDNS_14 $T=228000 59600 0 180 $X=212000 $Y=45600
X37 10 M2_M1_CDNS_16 $T=71600 28000 0 0 $X=69600 $Y=26000
X38 10 M2_M1_CDNS_16 $T=88000 28000 0 0 $X=86000 $Y=26000
X39 11 M2_M1_CDNS_16 $T=104000 36000 0 0 $X=102000 $Y=34000
X40 11 M2_M1_CDNS_16 $T=120000 36000 0 0 $X=118000 $Y=34000
X41 12 M2_M1_CDNS_16 $T=134000 28000 0 0 $X=132000 $Y=26000
X42 12 M2_M1_CDNS_16 $T=152000 28000 0 0 $X=150000 $Y=26000
.ends DFFX1

* +++++++++++++++++++++++++++++++++++++++++++++++++++++++++ *
* Sub cell: NOR2X1                                          *
* +++++++++++++++++++++++++++++++++++++++++++++++++++++++++ *
.subckt NOR2X1 1 Y A VDD! VSS! B
** N=9 EP=6 FDC=4
X0 A M1_PO_CDNS_11 $T=16000 44000 0 0 $X=14000 $Y=42000
X1 B M1_PO_CDNS_11 $T=44000 36000 0 0 $X=42000 $Y=34000
X2 1 Y A VSS! nmos3_CDNS_12 $T=8000 16000 0 0 $X=8000 $Y=16000
X3 1 Y B VSS! nmos3_CDNS_12 $T=40000 16000 1 180 $X=24000 $Y=16000
X4 1 7 A VDD! pmos3_CDNS_14 $T=24000 64000 0 180 $X=8000 $Y=50000
X5 1 Y B 7 pmos3_CDNS_14 $T=40000 64000 0 180 $X=24000 $Y=50000
.ends NOR2X1

* +++++++++++++++++++++++++++++++++++++++++++++++++++++++++ *
* Sub cell: NAND2X1                                         *
* +++++++++++++++++++++++++++++++++++++++++++++++++++++++++ *
.subckt NAND2X1 1 Y A VDD! VSS! B
** N=9 EP=6 FDC=4
X0 A M1_PO_CDNS_11 $T=16000 36000 0 0 $X=14000 $Y=34000
X1 B M1_PO_CDNS_11 $T=44000 36000 0 0 $X=42000 $Y=34000
X2 1 7 A VSS! nmos3_CDNS_12 $T=24000 16000 1 180 $X=8000 $Y=16000
X3 1 Y B 7 nmos3_CDNS_12 $T=40000 16000 1 180 $X=24000 $Y=16000
X4 1 Y A VDD! pmos3_CDNS_14 $T=8000 64000 1 0 $X=8000 $Y=50000
X5 1 Y B VDD! pmos3_CDNS_14 $T=40000 64000 0 180 $X=24000 $Y=50000
.ends NAND2X1

* +++++++++++++++++++++++++++++++++++++++++++++++++++++++++ *
* Sub cell: DECAP1                                          *
* +++++++++++++++++++++++++++++++++++++++++++++++++++++++++ *
.subckt DECAP1 1 VDD! VSS!
** N=5 EP=3 FDC=2
X0 VDD! M1_PO_CDNS_11 $T=8000 44000 0 0 $X=6000 $Y=42000
X1 VSS! M1_PO_CDNS_11 $T=16000 28000 0 0 $X=14000 $Y=26000
X2 1 VSS! VDD! VSS! nmos3_CDNS_12 $T=4000 6600 0 0 $X=4000 $Y=6600
X3 1 VDD! VSS! VDD! pmos3_CDNS_14 $T=20000 65800 0 180 $X=4000 $Y=51800
.ends DECAP1

* +++++++++++++++++++++++++++++++++++++++++++++++++++++++++ *
* Sub cell: nmos3_CDNS_17                                   *
* +++++++++++++++++++++++++++++++++++++++++++++++++++++++++ *
.subckt nmos3_CDNS_17 1 2 3
** N=3 EP=3 FDC=1
M0 2 3 2 2 nmos3 L=1e-06 W=8e-06 AD=2e-11 AS=0 PD=2.1e-05 PS=0 fw=8e-06 sa=2e-06 sb=2e-06 $X=7000 $Y=2000 $dt=0
.ends nmos3_CDNS_17

* +++++++++++++++++++++++++++++++++++++++++++++++++++++++++ *
* Sub cell: DECAP4                                          *
* +++++++++++++++++++++++++++++++++++++++++++++++++++++++++ *
.subckt DECAP4 1 VDD! VSS!
** N=4 EP=3 FDC=8
X0 VDD! M1_PO_CDNS_11 $T=21000 39200 0 0 $X=19000 $Y=37200
X1 VSS! M1_PO_CDNS_11 $T=77000 34400 0 0 $X=75000 $Y=32400
X2 1 VDD! VDD! VSS! pmos3_CDNS_15 $T=33000 67400 0 180 $X=17000 $Y=45400
X3 1 VDD! VDD! VSS! pmos3_CDNS_15 $T=49000 67400 0 180 $X=33000 $Y=45400
X4 1 VDD! VDD! VSS! pmos3_CDNS_15 $T=65000 67400 0 180 $X=49000 $Y=45400
X5 1 VDD! VDD! VSS! pmos3_CDNS_15 $T=81000 67400 0 180 $X=65000 $Y=45400
X6 1 VSS! VDD! nmos3_CDNS_17 $T=33000 5400 1 180 $X=17000 $Y=5400
X7 1 VSS! VDD! nmos3_CDNS_17 $T=49000 5400 1 180 $X=33000 $Y=5400
X8 1 VSS! VDD! nmos3_CDNS_17 $T=65000 5400 1 180 $X=49000 $Y=5400
X9 1 VSS! VDD! nmos3_CDNS_17 $T=81000 5400 1 180 $X=65000 $Y=5400
.ends DECAP4

* +++++++++++++++++++++++++++++++++++++++++++++++++++++++++ *
* Sub cell: DECAP2                                          *
* +++++++++++++++++++++++++++++++++++++++++++++++++++++++++ *
.subckt DECAP2 1 VDD! VSS!
** N=4 EP=3 FDC=4
X0 VDD! M1_PO_CDNS_11 $T=11800 35800 0 0 $X=9800 $Y=33800
X1 VSS! M1_PO_CDNS_11 $T=35800 33200 0 0 $X=33800 $Y=31200
X2 1 VDD! VDD! VSS! pmos3_CDNS_15 $T=7800 63800 1 0 $X=7800 $Y=41800
X3 1 VDD! VDD! VSS! pmos3_CDNS_15 $T=23800 63800 1 0 $X=23800 $Y=41800
X4 1 VSS! VDD! nmos3_CDNS_17 $T=7800 5000 0 0 $X=7800 $Y=5000
X5 1 VSS! VDD! nmos3_CDNS_17 $T=23800 5000 0 0 $X=23800 $Y=5000
.ends DECAP2

* +++++++++++++++++++++++++++++++++++++++++++++++++++++++++ *
* Sub cell: FILL1                                           *
* +++++++++++++++++++++++++++++++++++++++++++++++++++++++++ *
.subckt FILL1 VDD! VSS!
** N=2 EP=2 FDC=0
.ends FILL1

* +++++++++++++++++++++++++++++++++++++++++++++++++++++++++ *
* Sub cell: MASCO__A1                                       *
* +++++++++++++++++++++++++++++++++++++++++++++++++++++++++ *
.subckt MASCO__A1 1 2 3
** N=3 EP=3 FDC=16
X0 1 3 2 DECAP4 $T=0 74000 1 0 $X=0 $Y=0
X1 1 3 2 DECAP4 $T=96000 74000 1 0 $X=96000 $Y=0
.ends MASCO__A1

* +++++++++++++++++++++++++++++++++++++++++++++++++++++++++ *
* Sub cell: MASCO__A2                                       *
* +++++++++++++++++++++++++++++++++++++++++++++++++++++++++ *
.subckt MASCO__A2 1 2 3
** N=3 EP=3 FDC=6
X0 1 2 3 DECAP1 $T=48000 2000 0 0 $X=48000 $Y=0
X1 1 2 3 DECAP2 $T=0 2000 0 0 $X=0 $Y=0
.ends MASCO__A2

* +++++++++++++++++++++++++++++++++++++++++++++++++++++++++ *
* Sub cell: MASCO__A3                                       *
* +++++++++++++++++++++++++++++++++++++++++++++++++++++++++ *
.subckt MASCO__A3 1 2 3 4 5 6
** N=6 EP=6 FDC=6
X0 1 4 5 3 2 6 NOR2X1 $T=24000 74000 1 0 $X=24000 $Y=0
X1 1 3 2 DECAP1 $T=0 74000 1 0 $X=0 $Y=0
.ends MASCO__A3

* +++++++++++++++++++++++++++++++++++++++++++++++++++++++++ *
* Sub cell: counter                                         *
* +++++++++++++++++++++++++++++++++++++++++++++++++++++++++ *
.subckt counter VDD! VSS! clk enable out<0> out<1> out<2> out<3> out<4> out<5>
+ out<6> out<7> reset
** N=91 EP=13 FDC=1030
X0 VSS! M2_M1_CDNS_1 $T=22000 136000 0 0 $X=12000 $Y=134000
X1 VSS! M2_M1_CDNS_1 $T=22000 280000 0 0 $X=12000 $Y=278000
X2 VSS! M2_M1_CDNS_1 $T=22000 424000 0 0 $X=12000 $Y=422000
X3 VSS! M2_M1_CDNS_1 $T=22000 568000 0 0 $X=12000 $Y=566000
X4 VSS! M2_M1_CDNS_1 $T=22000 712000 0 0 $X=12000 $Y=710000
X5 VSS! M2_M1_CDNS_1 $T=22000 856000 0 0 $X=12000 $Y=854000
X6 VDD! M2_M1_CDNS_1 $T=46000 64000 0 0 $X=36000 $Y=62000
X7 VDD! M2_M1_CDNS_1 $T=46000 208000 0 0 $X=36000 $Y=206000
X8 VDD! M2_M1_CDNS_1 $T=46000 352000 0 0 $X=36000 $Y=350000
X9 VDD! M2_M1_CDNS_1 $T=46000 496000 0 0 $X=36000 $Y=494000
X10 VDD! M2_M1_CDNS_1 $T=46000 640000 0 0 $X=36000 $Y=638000
X11 VDD! M2_M1_CDNS_1 $T=46000 784000 0 0 $X=36000 $Y=782000
X12 VDD! M2_M1_CDNS_1 $T=1138000 64000 0 0 $X=1128000 $Y=62000
X13 VDD! M2_M1_CDNS_1 $T=1138000 208000 0 0 $X=1128000 $Y=206000
X14 VDD! M2_M1_CDNS_1 $T=1138000 352000 0 0 $X=1128000 $Y=350000
X15 VDD! M2_M1_CDNS_1 $T=1138000 496000 0 0 $X=1128000 $Y=494000
X16 VDD! M2_M1_CDNS_1 $T=1138000 640000 0 0 $X=1128000 $Y=638000
X17 VDD! M2_M1_CDNS_1 $T=1138000 784000 0 0 $X=1128000 $Y=782000
X18 VSS! M2_M1_CDNS_1 $T=1162000 136000 0 0 $X=1152000 $Y=134000
X19 VSS! M2_M1_CDNS_1 $T=1162000 280000 0 0 $X=1152000 $Y=278000
X20 VSS! M2_M1_CDNS_1 $T=1162000 424000 0 0 $X=1152000 $Y=422000
X21 VSS! M2_M1_CDNS_1 $T=1162000 568000 0 0 $X=1152000 $Y=566000
X22 VSS! M2_M1_CDNS_1 $T=1162000 712000 0 0 $X=1152000 $Y=710000
X23 VSS! M2_M1_CDNS_1 $T=1162000 856000 0 0 $X=1152000 $Y=854000
X24 VSS! M2_M1_CDNS_2 $T=22000 22000 0 0 $X=12000 $Y=12000
X25 VSS! M2_M1_CDNS_2 $T=22000 898000 0 0 $X=12000 $Y=888000
X26 VDD! M2_M1_CDNS_2 $T=46000 46000 0 0 $X=36000 $Y=36000
X27 VDD! M2_M1_CDNS_2 $T=46000 874000 0 0 $X=36000 $Y=864000
X28 VDD! M2_M1_CDNS_2 $T=1138000 46000 0 0 $X=1128000 $Y=36000
X29 VDD! M2_M1_CDNS_2 $T=1138000 874000 0 0 $X=1128000 $Y=864000
X30 VSS! M2_M1_CDNS_2 $T=1162000 22000 0 0 $X=1152000 $Y=12000
X31 VSS! M2_M1_CDNS_2 $T=1162000 898000 0 0 $X=1152000 $Y=888000
X32 enable M3_M2_CDNS_3 $T=100000 452000 0 0 $X=94940 $Y=450000
X33 4 M3_M2_CDNS_3 $T=316000 244000 0 0 $X=310940 $Y=242000
X34 out<7> M3_M2_CDNS_3 $T=340000 12000 0 0 $X=334940 $Y=10000
X35 6 M3_M2_CDNS_3 $T=364000 188000 0 0 $X=358940 $Y=186000
X36 7 M3_M2_CDNS_3 $T=364000 388000 0 0 $X=358940 $Y=386000
X37 7 M3_M2_CDNS_3 $T=428000 100000 0 0 $X=422940 $Y=98000
X38 8 M3_M2_CDNS_3 $T=468000 244000 0 0 $X=462940 $Y=242000
X39 9 M3_M2_CDNS_3 $T=484000 668000 0 0 $X=478940 $Y=666000
X40 10 M3_M2_CDNS_3 $T=516000 684000 0 0 $X=510940 $Y=682000
X41 out<5> M3_M2_CDNS_3 $T=580000 12000 0 0 $X=574940 $Y=10000
X42 out<4> M3_M2_CDNS_3 $T=588000 20000 0 0 $X=582940 $Y=18000
X43 13 M3_M2_CDNS_3 $T=604000 460000 0 0 $X=598940 $Y=458000
X44 out<3> M3_M2_CDNS_3 $T=620000 12000 0 0 $X=614940 $Y=10000
X45 15 M3_M2_CDNS_3 $T=628000 260000 0 0 $X=622940 $Y=258000
X46 16 M3_M2_CDNS_3 $T=636000 252000 0 0 $X=630940 $Y=250000
X47 out<2> M3_M2_CDNS_3 $T=676000 20000 0 0 $X=670940 $Y=18000
X48 18 M3_M2_CDNS_3 $T=764000 604000 0 0 $X=758940 $Y=602000
X49 out<0> M3_M2_CDNS_3 $T=772000 2000 0 0 $X=766940 $Y=0
X50 20 M3_M2_CDNS_3 $T=772000 660000 0 0 $X=766940 $Y=658000
X51 21 M3_M2_CDNS_3 $T=796000 372000 0 0 $X=790940 $Y=370000
X52 22 M3_M2_CDNS_3 $T=852000 748000 0 0 $X=846940 $Y=746000
X53 23 M3_M2_CDNS_3 $T=924000 676000 0 0 $X=918940 $Y=674000
X54 24 M3_M2_CDNS_3 $T=972000 388000 0 0 $X=966940 $Y=386000
X55 25 M3_M2_CDNS_4 $T=124000 588000 0 0 $X=122000 $Y=582940
X56 4 M3_M2_CDNS_4 $T=204000 244000 0 0 $X=202000 $Y=238940
X57 9 M3_M2_CDNS_4 $T=228000 668000 0 0 $X=226000 $Y=662940
X58 enable M3_M2_CDNS_4 $T=260000 308000 0 0 $X=258000 $Y=302940
X59 25 M3_M2_CDNS_4 $T=276000 588000 0 0 $X=274000 $Y=582940
X60 out<4> M3_M2_CDNS_4 $T=284000 172000 0 0 $X=282000 $Y=166940
X61 out<7> M3_M2_CDNS_4 $T=284000 332000 0 0 $X=282000 $Y=326940
X62 out<7> M3_M2_CDNS_4 $T=284000 612000 0 0 $X=282000 $Y=606940
X63 26 M3_M2_CDNS_4 $T=292000 620000 0 0 $X=290000 $Y=614940
X64 27 M3_M2_CDNS_4 $T=308000 532000 0 0 $X=306000 $Y=526940
X65 6 M3_M2_CDNS_4 $T=324000 188000 0 0 $X=322000 $Y=182940
X66 6 M3_M2_CDNS_4 $T=324000 652000 0 0 $X=322000 $Y=646940
X67 enable M3_M2_CDNS_4 $T=332000 308000 0 0 $X=330000 $Y=302940
X68 clk M3_M2_CDNS_4 $T=332000 436000 0 0 $X=330000 $Y=430940
X69 out<7> M3_M2_CDNS_4 $T=340000 332000 0 0 $X=338000 $Y=326940
X70 enable M3_M2_CDNS_4 $T=348000 308000 0 0 $X=346000 $Y=302940
X71 26 M3_M2_CDNS_4 $T=388000 620000 0 0 $X=386000 $Y=614940
X72 8 M3_M2_CDNS_4 $T=396000 244000 0 0 $X=394000 $Y=238940
X73 29 M3_M2_CDNS_4 $T=420000 452000 0 0 $X=418000 $Y=446940
X74 6 M3_M2_CDNS_4 $T=420000 652000 0 0 $X=418000 $Y=646940
X75 30 M3_M2_CDNS_4 $T=484000 716000 0 0 $X=482000 $Y=710940
X76 18 M3_M2_CDNS_4 $T=500000 604000 0 0 $X=498000 $Y=598940
X77 31 M3_M2_CDNS_4 $T=508000 780000 0 0 $X=506000 $Y=774940
X78 reset M3_M2_CDNS_4 $T=524000 468000 0 0 $X=522000 $Y=462940
X79 13 M3_M2_CDNS_4 $T=540000 460000 0 0 $X=538000 $Y=454940
X80 15 M3_M2_CDNS_4 $T=564000 260000 0 0 $X=562000 $Y=254940
X81 out<4> M3_M2_CDNS_4 $T=588000 164000 0 0 $X=586000 $Y=158940
X82 30 M3_M2_CDNS_4 $T=588000 716000 0 0 $X=586000 $Y=710940
X83 31 M3_M2_CDNS_4 $T=636000 780000 0 0 $X=634000 $Y=774940
X84 33 M3_M2_CDNS_4 $T=644000 292000 0 0 $X=642000 $Y=286940
X85 34 M3_M2_CDNS_4 $T=660000 236000 0 0 $X=658000 $Y=230940
X86 35 M3_M2_CDNS_4 $T=684000 172000 0 0 $X=682000 $Y=166940
X87 out<6> M3_M2_CDNS_4 $T=692000 676000 0 0 $X=690000 $Y=670940
X88 35 M3_M2_CDNS_4 $T=700000 172000 0 0 $X=698000 $Y=166940
X89 16 M3_M2_CDNS_4 $T=708000 252000 0 0 $X=706000 $Y=246940
X90 30 M3_M2_CDNS_4 $T=716000 708000 0 0 $X=714000 $Y=702940
X91 16 M3_M2_CDNS_4 $T=748000 252000 0 0 $X=746000 $Y=246940
X92 37 M3_M2_CDNS_4 $T=748000 412000 0 0 $X=746000 $Y=406940
X93 38 M3_M2_CDNS_4 $T=756000 460000 0 0 $X=754000 $Y=454940
X94 out<0> M3_M2_CDNS_4 $T=788000 172000 0 0 $X=786000 $Y=166940
X95 38 M3_M2_CDNS_4 $T=796000 460000 0 0 $X=794000 $Y=454940
X96 39 M3_M2_CDNS_4 $T=804000 516000 0 0 $X=802000 $Y=510940
X97 40 M3_M2_CDNS_4 $T=844000 476000 0 0 $X=842000 $Y=470940
X98 39 M3_M2_CDNS_4 $T=868000 516000 0 0 $X=866000 $Y=510940
X99 37 M3_M2_CDNS_4 $T=940000 412000 0 0 $X=938000 $Y=406940
X100 23 M3_M2_CDNS_4 $T=988000 676000 0 0 $X=986000 $Y=670940
X101 7 M3_M2_CDNS_5 $T=92000 100000 0 0 $X=90940 $Y=98000
X102 7 M3_M2_CDNS_5 $T=92000 388000 0 0 $X=90940 $Y=386000
X103 27 M3_M2_CDNS_5 $T=132000 532000 0 0 $X=130940 $Y=530000
X104 reset M3_M2_CDNS_5 $T=172000 468000 0 0 $X=170940 $Y=466000
X105 out<7> M3_M2_CDNS_5 $T=196000 612000 0 0 $X=194940 $Y=610000
X106 29 M3_M2_CDNS_5 $T=340000 452000 0 0 $X=338940 $Y=450000
X107 out<4> M3_M2_CDNS_5 $T=364000 172000 0 0 $X=362940 $Y=170000
X108 26 M3_M2_CDNS_5 $T=404000 396000 0 0 $X=402940 $Y=394000
X109 41 M3_M2_CDNS_5 $T=412000 476000 0 0 $X=410940 $Y=474000
X110 33 M3_M2_CDNS_5 $T=436000 300000 0 0 $X=434940 $Y=298000
X111 34 M3_M2_CDNS_5 $T=460000 236000 0 0 $X=458940 $Y=234000
X112 reset M3_M2_CDNS_5 $T=460000 468000 0 0 $X=458940 $Y=466000
X113 out<6> M3_M2_CDNS_5 $T=484000 676000 0 0 $X=482940 $Y=674000
X114 42 M3_M2_CDNS_5 $T=516000 748000 0 0 $X=514940 $Y=746000
X115 43 M3_M2_CDNS_5 $T=532000 324000 0 0 $X=530940 $Y=322000
X116 40 M3_M2_CDNS_5 $T=556000 180000 0 0 $X=554940 $Y=178000
X117 26 M3_M2_CDNS_5 $T=604000 396000 0 0 $X=602940 $Y=394000
X118 40 M3_M2_CDNS_5 $T=604000 476000 0 0 $X=602940 $Y=474000
X119 16 M3_M2_CDNS_5 $T=604000 756000 0 0 $X=602940 $Y=754000
X120 44 M3_M2_CDNS_5 $T=620000 316000 0 0 $X=618940 $Y=314000
X121 40 M3_M2_CDNS_5 $T=652000 180000 0 0 $X=650940 $Y=178000
X122 16 M3_M2_CDNS_5 $T=724000 756000 0 0 $X=722940 $Y=754000
X123 45 M3_M2_CDNS_5 $T=756000 100000 0 0 $X=754940 $Y=98000
X124 46 M3_M2_CDNS_5 $T=772000 236000 0 0 $X=770940 $Y=234000
X125 23 M3_M2_CDNS_5 $T=772000 676000 0 0 $X=770940 $Y=674000
X126 47 M3_M2_CDNS_5 $T=796000 308000 0 0 $X=794940 $Y=306000
X127 43 M3_M2_CDNS_5 $T=796000 324000 0 0 $X=794940 $Y=322000
X128 24 M3_M2_CDNS_5 $T=868000 388000 0 0 $X=866940 $Y=386000
X129 out<1> M3_M2_CDNS_5 $T=908000 12000 0 0 $X=906940 $Y=10000
X130 46 M3_M2_CDNS_5 $T=916000 236000 0 0 $X=914940 $Y=234000
X131 43 M3_M2_CDNS_5 $T=916000 324000 0 0 $X=914940 $Y=322000
X132 out<0> M3_M2_CDNS_5 $T=956000 172000 0 0 $X=954940 $Y=170000
X133 7 M2_M1_CDNS_6 $T=92000 100000 0 0 $X=90000 $Y=98990
X134 7 M2_M1_CDNS_6 $T=92000 388000 0 0 $X=90000 $Y=386990
X135 49 M2_M1_CDNS_6 $T=100000 668000 0 0 $X=98000 $Y=666990
X136 reset M2_M1_CDNS_6 $T=124000 236000 0 0 $X=122000 $Y=234990
X137 50 M2_M1_CDNS_6 $T=124000 524000 0 0 $X=122000 $Y=522990
X138 51 M2_M1_CDNS_6 $T=132000 100000 0 0 $X=130000 $Y=98990
X139 52 M2_M1_CDNS_6 $T=132000 388000 0 0 $X=130000 $Y=386990
X140 27 M2_M1_CDNS_6 $T=132000 532000 0 0 $X=130000 $Y=530990
X141 53 M2_M1_CDNS_6 $T=156000 244000 0 0 $X=154000 $Y=242990
X142 27 M2_M1_CDNS_6 $T=156000 612000 0 0 $X=154000 $Y=610990
X143 enable M2_M1_CDNS_6 $T=172000 180000 0 0 $X=170000 $Y=178990
X144 50 M2_M1_CDNS_6 $T=172000 524000 0 0 $X=170000 $Y=522990
X145 54 M2_M1_CDNS_6 $T=180000 748000 0 0 $X=178000 $Y=746990
X146 55 M2_M1_CDNS_6 $T=196000 196000 0 0 $X=194000 $Y=194990
X147 56 M2_M1_CDNS_6 $T=196000 596000 0 0 $X=194000 $Y=594990
X148 out<7> M2_M1_CDNS_6 $T=196000 612000 0 0 $X=194000 $Y=610990
X149 4 M2_M1_CDNS_6 $T=204000 172000 0 0 $X=202000 $Y=170990
X150 57 M2_M1_CDNS_6 $T=204000 460000 0 0 $X=202000 $Y=458990
X151 58 M2_M1_CDNS_6 $T=228000 244000 0 0 $X=226000 $Y=242990
X152 9 M2_M1_CDNS_6 $T=228000 604000 0 0 $X=226000 $Y=602990
X153 59 M2_M1_CDNS_6 $T=244000 236000 0 0 $X=242000 $Y=234990
X154 58 M2_M1_CDNS_6 $T=244000 260000 0 0 $X=242000 $Y=258990
X155 25 M2_M1_CDNS_6 $T=276000 532000 0 0 $X=274000 $Y=530990
X156 60 M2_M1_CDNS_6 $T=292000 172000 0 0 $X=290000 $Y=170990
X157 61 M2_M1_CDNS_6 $T=292000 196000 0 0 $X=290000 $Y=194990
X158 26 M2_M1_CDNS_6 $T=292000 604000 0 0 $X=290000 $Y=602990
X159 62 M2_M1_CDNS_6 $T=292000 628000 0 0 $X=290000 $Y=626990
X160 59 M2_M1_CDNS_6 $T=316000 468000 0 0 $X=314000 $Y=466990
X161 63 M2_M1_CDNS_6 $T=316000 660000 0 0 $X=314000 $Y=658990
X162 6 M2_M1_CDNS_6 $T=324000 172000 0 0 $X=322000 $Y=170990
X163 6 M2_M1_CDNS_6 $T=324000 604000 0 0 $X=322000 $Y=602990
X164 42 M2_M1_CDNS_6 $T=324000 676000 0 0 $X=322000 $Y=674990
X165 clk M2_M1_CDNS_6 $T=332000 388000 0 0 $X=330000 $Y=386990
X166 29 M2_M1_CDNS_6 $T=340000 452000 0 0 $X=338000 $Y=450990
X167 63 M2_M1_CDNS_6 $T=348000 460000 0 0 $X=346000 $Y=458990
X168 6 M2_M1_CDNS_6 $T=364000 188000 0 0 $X=362000 $Y=186990
X169 7 M2_M1_CDNS_6 $T=380000 388000 0 0 $X=378000 $Y=386990
X170 64 M2_M1_CDNS_6 $T=388000 468000 0 0 $X=386000 $Y=466990
X171 10 M2_M1_CDNS_6 $T=388000 692000 0 0 $X=386000 $Y=690990
X172 65 M2_M1_CDNS_6 $T=396000 172000 0 0 $X=394000 $Y=170990
X173 26 M2_M1_CDNS_6 $T=396000 532000 0 0 $X=394000 $Y=530990
X174 41 M2_M1_CDNS_6 $T=412000 476000 0 0 $X=410000 $Y=474990
X175 66 M2_M1_CDNS_6 $T=420000 388000 0 0 $X=418000 $Y=386990
X176 7 M2_M1_CDNS_6 $T=428000 100000 0 0 $X=426000 $Y=98990
X177 65 M2_M1_CDNS_6 $T=436000 164000 0 0 $X=434000 $Y=162990
X178 33 M2_M1_CDNS_6 $T=436000 180000 0 0 $X=434000 $Y=178990
X179 67 M2_M1_CDNS_6 $T=436000 244000 0 0 $X=434000 $Y=242990
X180 68 M2_M1_CDNS_6 $T=468000 100000 0 0 $X=466000 $Y=98990
X181 69 M2_M1_CDNS_6 $T=468000 172000 0 0 $X=466000 $Y=170990
X182 8 M2_M1_CDNS_6 $T=468000 244000 0 0 $X=466000 $Y=242990
X183 9 M2_M1_CDNS_6 $T=484000 660000 0 0 $X=482000 $Y=658990
X184 out<6> M2_M1_CDNS_6 $T=484000 676000 0 0 $X=482000 $Y=674990
X185 70 M2_M1_CDNS_6 $T=484000 772000 0 0 $X=482000 $Y=770990
X186 41 M2_M1_CDNS_6 $T=492000 460000 0 0 $X=490000 $Y=458990
X187 18 M2_M1_CDNS_6 $T=500000 532000 0 0 $X=498000 $Y=530990
X188 9 M2_M1_CDNS_6 $T=508000 692000 0 0 $X=506000 $Y=690990
X189 10 M2_M1_CDNS_6 $T=516000 676000 0 0 $X=514000 $Y=674990
X190 42 M2_M1_CDNS_6 $T=516000 748000 0 0 $X=514000 $Y=746990
X191 reset M2_M1_CDNS_6 $T=524000 460000 0 0 $X=522000 $Y=458990
X192 71 M2_M1_CDNS_6 $T=532000 236000 0 0 $X=530000 $Y=234990
X193 40 M2_M1_CDNS_6 $T=556000 180000 0 0 $X=554000 $Y=178990
X194 15 M2_M1_CDNS_6 $T=564000 244000 0 0 $X=562000 $Y=242990
X195 72 M2_M1_CDNS_6 $T=580000 668000 0 0 $X=578000 $Y=666990
X196 73 M2_M1_CDNS_6 $T=588000 172000 0 0 $X=586000 $Y=170990
X197 30 M2_M1_CDNS_6 $T=588000 676000 0 0 $X=586000 $Y=674990
X198 13 M2_M1_CDNS_6 $T=604000 452000 0 0 $X=602000 $Y=450990
X199 40 M2_M1_CDNS_6 $T=604000 468000 0 0 $X=602000 $Y=466990
X200 16 M2_M1_CDNS_6 $T=604000 756000 0 0 $X=602000 $Y=754990
X201 16 M2_M1_CDNS_6 $T=628000 236000 0 0 $X=626000 $Y=234990
X202 72 M2_M1_CDNS_6 $T=628000 668000 0 0 $X=626000 $Y=666990
X203 74 M2_M1_CDNS_6 $T=636000 460000 0 0 $X=634000 $Y=458990
X204 31 M2_M1_CDNS_6 $T=636000 748000 0 0 $X=634000 $Y=746990
X205 75 M2_M1_CDNS_6 $T=660000 676000 0 0 $X=658000 $Y=674990
X206 45 M2_M1_CDNS_6 $T=668000 164000 0 0 $X=666000 $Y=162990
X207 69 M2_M1_CDNS_6 $T=676000 476000 0 0 $X=674000 $Y=474990
X208 35 M2_M1_CDNS_6 $T=684000 172000 0 0 $X=682000 $Y=170990
X209 37 M2_M1_CDNS_6 $T=708000 460000 0 0 $X=706000 $Y=458990
X210 18 M2_M1_CDNS_6 $T=716000 100000 0 0 $X=714000 $Y=98990
X211 76 M2_M1_CDNS_6 $T=724000 692000 0 0 $X=722000 $Y=690990
X212 77 M2_M1_CDNS_6 $T=732000 316000 0 0 $X=730000 $Y=314990
X213 16 M2_M1_CDNS_6 $T=748000 236000 0 0 $X=746000 $Y=234990
X214 22 M2_M1_CDNS_6 $T=748000 748000 0 0 $X=746000 $Y=746990
X215 18 M2_M1_CDNS_6 $T=764000 172000 0 0 $X=762000 $Y=170990
X216 18 M2_M1_CDNS_6 $T=764000 604000 0 0 $X=762000 $Y=602990
X217 46 M2_M1_CDNS_6 $T=772000 236000 0 0 $X=770000 $Y=234990
X218 20 M2_M1_CDNS_6 $T=772000 660000 0 0 $X=770000 $Y=658990
X219 23 M2_M1_CDNS_6 $T=772000 676000 0 0 $X=770000 $Y=674990
X220 out<0> M2_M1_CDNS_6 $T=780000 244000 0 0 $X=778000 $Y=242990
X221 21 M2_M1_CDNS_6 $T=796000 372000 0 0 $X=794000 $Y=370990
X222 38 M2_M1_CDNS_6 $T=796000 388000 0 0 $X=794000 $Y=386990
X223 78 M2_M1_CDNS_6 $T=804000 172000 0 0 $X=802000 $Y=170990
X224 79 M2_M1_CDNS_6 $T=828000 316000 0 0 $X=826000 $Y=314990
X225 40 M2_M1_CDNS_6 $T=844000 468000 0 0 $X=842000 $Y=466990
X226 22 M2_M1_CDNS_6 $T=852000 748000 0 0 $X=850000 $Y=746990
X227 80 M2_M1_CDNS_6 $T=868000 372000 0 0 $X=866000 $Y=370990
X228 24 M2_M1_CDNS_6 $T=868000 388000 0 0 $X=866000 $Y=386990
X229 39 M2_M1_CDNS_6 $T=868000 484000 0 0 $X=866000 $Y=482990
X230 81 M2_M1_CDNS_6 $T=876000 244000 0 0 $X=874000 $Y=242990
X231 82 M2_M1_CDNS_6 $T=876000 460000 0 0 $X=874000 $Y=458990
X232 23 M2_M1_CDNS_6 $T=924000 676000 0 0 $X=922000 $Y=674990
X233 37 M2_M1_CDNS_6 $T=940000 404000 0 0 $X=938000 $Y=402990
X234 83 M2_M1_CDNS_6 $T=948000 244000 0 0 $X=946000 $Y=242990
X235 24 M2_M1_CDNS_6 $T=948000 316000 0 0 $X=946000 $Y=314990
X236 24 M2_M1_CDNS_6 $T=972000 388000 0 0 $X=970000 $Y=386990
X237 reset M2_M1_CDNS_7 $T=172000 468000 0 0 $X=170990 $Y=466000
X238 9 M2_M1_CDNS_7 $T=212000 748000 0 0 $X=210990 $Y=746000
X239 enable M2_M1_CDNS_7 $T=260000 316000 0 0 $X=258990 $Y=314000
X240 out<4> M2_M1_CDNS_7 $T=284000 100200 0 0 $X=282990 $Y=98200
X241 59 M2_M1_CDNS_7 $T=284000 316000 0 0 $X=282990 $Y=314000
X242 out<7> M2_M1_CDNS_7 $T=284000 388200 0 0 $X=282990 $Y=386200
X243 4 M2_M1_CDNS_7 $T=316000 108000 0 0 $X=314990 $Y=106000
X244 out<4> M2_M1_CDNS_7 $T=364000 172000 0 0 $X=362990 $Y=170000
X245 43 M2_M1_CDNS_7 $T=364000 316000 0 0 $X=362990 $Y=314000
X246 7 M2_M1_CDNS_7 $T=364000 388000 0 0 $X=362990 $Y=386000
X247 65 M2_M1_CDNS_7 $T=380000 244000 0 0 $X=378990 $Y=242000
X248 10 M2_M1_CDNS_7 $T=380000 748000 0 0 $X=378990 $Y=746000
X249 18 M2_M1_CDNS_7 $T=436000 532000 0 0 $X=434990 $Y=530000
X250 reset M2_M1_CDNS_7 $T=460000 468000 0 0 $X=458990 $Y=466000